[General]
network = aerocom_system
aerocom_system.Aircrafts[*].X = 40
aerocom_system.Aircrafts[*].S = 1ms
aerocom_system.Aircrafts[*].coefficient = 10
aerocom_system.Aircrafts[*].datarateMultiplier = 5000
aerocom_system.Tower.timeToServe = 50ms
aerocom_system.Aircrafts[*].timeToServe = 1ms
aerocom_system.numAircraft = 8
num-rngs = 3
aerocom_system.Aircrafts[*].rng-0 = 0
aerocom_system.Aircrafts[*].rng-1 = 1
aerocom_system.Aircrafts[*].rng-2 = 2 
record-eventlog=true
sim-time-limit = 1500s
